<?xml version="1.0" encoding="UTF-8"?>

<!-- generated on 2023-10-15 22:53:32 by Eclipse SUMO netconvert Version v1_18_0+1969-a4eae2a1273
<configuration xmlns:xsi="http://www.w3.org/2001/XMLSchema-instance" xsi:noNamespaceSchemaLocation="http://sumo.dlr.de/xsd/netconvertConfiguration.xsd">

    <input>
        <sumo-net-file value="single-intersection.net.xml"/>
    </input>

    <output>
        <opendrive-output value="osm.xodr"/>
    </output>

    <processing>
        <geometry.min-radius.fix.railways value="false"/>
        <geometry.max-grade.fix value="false"/>
        <offset.disable-normalization value="true"/>
        <lefthand value="0"/>
    </processing>

    <junctions>
        <no-turnarounds value="true"/>
        <junctions.corner-detail value="5"/>
        <junctions.limit-turn-speed value="5.50"/>
    </junctions>

    <pedestrian>
        <sidewalks.guess value="true"/>
        <crossings.guess value="true"/>
        <walkingareas value="true"/>
    </pedestrian>

</configuration>
-->

<OpenDRIVE>
    <header revMajor="1" revMinor="4" name="" version="1.00" date="Sun Oct 15 22:53:32 2023" north="100.10" south="-100.00" east="100.00" west="-100.00"/>
    <road name="" length="89.60000000" id="50" junction="-1">
        <link>
            <predecessor elementType="junction" elementId="1"/>
        </link>
        <type s="0" type="town"/>
        <planView>
            <geometry s="0.00000000" x="-10.40000000" y="0.00000000" hdg="3.14159265" length="89.60000000">
                <line/>
            </geometry>
        </planView>
        <elevationProfile>
            <elevation s="0" a="0.00" b="0" c="0" d="0"/>
        </elevationProfile>
        <lateralProfile/>
        <lanes>
            <laneSection s="0">
                <center>
                    <lane id="0" type="none" level="true">
                        <link/>
                        <roadMark sOffset="0" type="solid" weight="standard" color="standard" width="0.13"/>
                    </lane>
                </center>
                <right>
                    <lane id="-1" type="driving" level="true">
                        <link/>
                        <width sOffset="0" a="3.20" b="0" c="0" d="0"/>
                        <roadMark sOffset="0" type="broken" weight="standard" color="standard" width="0.13"/>
                        <speed sOffset="0" max="13.89"/>
                    </lane>
                    <lane id="-2" type="driving" level="true">
                        <link/>
                        <width sOffset="0" a="3.20" b="0" c="0" d="0"/>
                        <roadMark sOffset="0" type="solid" weight="standard" color="standard" width="0.13"/>
                        <speed sOffset="0" max="13.89"/>
                    </lane>
                    <!-- <lane id="-3" type="sidewalk" level="true">
                        <link/>
                        <width sOffset="0" a="2.00" b="0" c="0" d="0"/>
                        <roadMark sOffset="0" type="solid" weight="standard" color="standard" width="0.13"/>
                        <speed sOffset="0" max="13.89"/>
                    </lane> -->
                 </right>
            </laneSection>
        </lanes>
        <objects>
            <object id=":J1_c3" type="crosswalk" s="0.00000000" t="0.00000000" hdg="0.00000000" length="4.00000000" width="12.80000000">
                <outline id="0" fillType="concrete" outer="true" closed="false" laneType="border">
                    <cornerLocal u="2.00000000" v="-6.40000000" z="0.00000000" height="0.00000000" id="0"/>
                    <cornerLocal u="2.00000000" v="6.40000000" z="0.00000000" height="0.00000000" id="1"/>
                    <cornerLocal u="-2.00000000" v="6.40000000" z="0.00000000" height="0.00000000" id="2"/>
                    <cornerLocal u="-2.00000000" v="-6.40000000" z="0.00000000" height="0.00000000" id="3"/>
                </outline>
            </object>
        </objects>
        <signals/>
    </road>
    <road name="" length="89.59155430" id="51" junction="-1">
        <link>
            <predecessor elementType="junction" elementId="2"/>
            <successor elementType="junction" elementId="1"/>
        </link>
        <type s="0" type="town"/>
        <planView>
            <geometry s="0.00000000" x="0.09990000" y="99.99990020" hdg="-1.57179533" length="89.59155430">
                <line/>
            </geometry>
        </planView>
        <elevationProfile>
            <elevation s="0" a="0.00" b="0" c="0" d="0"/>
        </elevationProfile>
        <lateralProfile/>
        <lanes>
            <laneSection s="0">
                <center>
                    <lane id="0" type="none" level="true">
                        <link/>
                        <roadMark sOffset="0" type="solid" weight="standard" color="standard" width="0.13"/>
                    </lane>
                </center>
                <right>
                    <lane id="-1" type="driving" level="true">
                        <link/>
                        <width sOffset="0" a="3.20" b="0" c="0" d="0"/>
                        <roadMark sOffset="0" type="broken" weight="standard" color="standard" width="0.13"/>
                        <speed sOffset="0" max="13.89"/>
                    </lane>
                    <lane id="-2" type="driving" level="true">
                        <link/>
                        <width sOffset="0" a="3.20" b="0" c="0" d="0"/>
                        <roadMark sOffset="0" type="solid" weight="standard" color="standard" width="0.13"/>
                        <speed sOffset="0" max="13.89"/>
                    </lane>
                    <!-- <lane id="-3" type="sidewalk" level="true">
                        <link/>
                        <width sOffset="0" a="2.00" b="0" c="0" d="0"/>
                        <roadMark sOffset="0" type="solid" weight="standard" color="standard" width="0.13"/>
                        <speed sOffset="0" max="13.89"/>
                    </lane> -->
                 </right>
            </laneSection>
        </lanes>
        <objects/>
        <!-- <signals>
            <signal id="J1_0" s="89.59" t="-4.80" orientation="+" dynamic="yes" zOffset="5" country="OpenDRIVE" type="1000011" subtype="20" height="0.78" width="0.26">
                <validity fromLane="1" toLane="1"/>
            </signal>
            <signal id="J1_1" s="89.59" t="-4.80" orientation="+" dynamic="yes" zOffset="5" country="OpenDRIVE" type="1000011" subtype="30" height="0.78" width="0.26">
                <validity fromLane="1" toLane="1"/>
            </signal>
            <signal id="J1_2" s="89.59" t="-1.60" orientation="+" dynamic="yes" zOffset="5" country="OpenDRIVE" type="1000011" subtype="30" height="0.78" width="0.26">
                <validity fromLane="2" toLane="2"/>
            </signal>
            <signal id="J1_3" s="89.59" t="-1.60" orientation="+" dynamic="yes" zOffset="5" country="OpenDRIVE" type="1000011" subtype="10" height="0.78" width="0.26">
                <validity fromLane="2" toLane="2"/>
            </signal>
        </signals> -->
    </road>
    <road name="" length="89.60000000" id="52" junction="-1">
        <link>
            <predecessor elementType="junction" elementId="3"/>
            <successor elementType="junction" elementId="1"/>
        </link>
        <type s="0" type="town"/>
        <planView>
            <geometry s="0.00000000" x="0.00000000" y="-100.00000000" hdg="1.57079633" length="89.60000000">
                <line/>
            </geometry>
        </planView>
        <elevationProfile>
            <elevation s="0" a="0.00" b="0" c="0" d="0"/>
        </elevationProfile>
        <lateralProfile/>
        <lanes>
            <laneSection s="0">
                <center>
                    <lane id="0" type="none" level="true">
                        <link/>
                        <roadMark sOffset="0" type="solid" weight="standard" color="standard" width="0.13"/>
                    </lane>
                </center>
                <right>
                    <lane id="-1" type="driving" level="true">
                        <link/>
                        <width sOffset="0" a="3.20" b="0" c="0" d="0"/>
                        <roadMark sOffset="0" type="broken" weight="standard" color="standard" width="0.13"/>
                        <speed sOffset="0" max="13.89"/>
                    </lane>
                    <lane id="-2" type="driving" level="true">
                        <link/>
                        <width sOffset="0" a="3.20" b="0" c="0" d="0"/>
                        <roadMark sOffset="0" type="solid" weight="standard" color="standard" width="0.13"/>
                        <speed sOffset="0" max="13.89"/>
                    </lane>
                    <!-- <lane id="-3" type="sidewalk" level="true">
                        <link/>
                        <width sOffset="0" a="2.00" b="0" c="0" d="0"/>
                        <roadMark sOffset="0" type="solid" weight="standard" color="standard" width="0.13"/>
                        <speed sOffset="0" max="13.89"/>
                    </lane> -->
                 </right>
            </laneSection>
        </lanes>
        <objects/>
        <!-- <signals>
            <signal id="J1_10" s="89.60" t="-1.60" orientation="+" dynamic="yes" zOffset="5" country="OpenDRIVE" type="1000011" subtype="30" height="0.78" width="0.26">
                <validity fromLane="2" toLane="2"/>
            </signal>
            <signal id="J1_11" s="89.60" t="-1.60" orientation="+" dynamic="yes" zOffset="5" country="OpenDRIVE" type="1000011" subtype="10" height="0.78" width="0.26">
                <validity fromLane="2" toLane="2"/>
            </signal>
            <signal id="J1_8" s="89.60" t="-4.80" orientation="+" dynamic="yes" zOffset="5" country="OpenDRIVE" type="1000011" subtype="20" height="0.78" width="0.26">
                <validity fromLane="1" toLane="1"/>
            </signal>
            <signal id="J1_9" s="89.60" t="-4.80" orientation="+" dynamic="yes" zOffset="5" country="OpenDRIVE" type="1000011" subtype="30" height="0.78" width="0.26">
                <validity fromLane="1" toLane="1"/>
            </signal>
        </signals> -->
    </road>
    <road name="" length="89.59160420" id="53" junction="-1">
        <link>
            <predecessor elementType="junction" elementId="4"/>
            <successor elementType="junction" elementId="1"/>
        </link>
        <type s="0" type="town"/>
        <planView>
            <geometry s="0.00000000" x="100.00000000" y="0.00000000" hdg="3.14159265" length="89.59160420">
                <line/>
            </geometry>
        </planView>
        <elevationProfile>
            <elevation s="0" a="0.00" b="0" c="0" d="0"/>
        </elevationProfile>
        <lateralProfile/>
        <lanes>
            <laneSection s="0">
                <center>
                    <lane id="0" type="none" level="true">
                        <link/>
                        <roadMark sOffset="0" type="solid" weight="standard" color="standard" width="0.13"/>
                    </lane>
                </center>
                <right>
                    <lane id="-1" type="driving" level="true">
                        <link/>
                        <width sOffset="0" a="3.20" b="0" c="0" d="0"/>
                        <roadMark sOffset="0" type="broken" weight="standard" color="standard" width="0.13"/>
                        <speed sOffset="0" max="13.89"/>
                    </lane>
                    <lane id="-2" type="driving" level="true">
                        <link/>
                        <width sOffset="0" a="3.20" b="0" c="0" d="0"/>
                        <roadMark sOffset="0" type="solid" weight="standard" color="standard" width="0.13"/>
                        <speed sOffset="0" max="13.89"/>
                    </lane>
                    <!-- <lane id="-3" type="sidewalk" level="true">
                        <link/>
                        <width sOffset="0" a="2.00" b="0" c="0" d="0"/>
                        <roadMark sOffset="0" type="solid" weight="standard" color="standard" width="0.13"/>
                        <speed sOffset="0" max="13.89"/>
                    </lane> -->
                 </right>
            </laneSection>
        </lanes>
        <objects/>
        <!-- <signals>
            <signal id="J1_4" s="89.59" t="-4.80" orientation="+" dynamic="yes" zOffset="5" country="OpenDRIVE" type="1000011" subtype="20" height="0.78" width="0.26">
                <validity fromLane="1" toLane="1"/>
            </signal>
            <signal id="J1_5" s="89.59" t="-4.80" orientation="+" dynamic="yes" zOffset="5" country="OpenDRIVE" type="1000011" subtype="30" height="0.78" width="0.26">
                <validity fromLane="1" toLane="1"/>
            </signal>
            <signal id="J1_6" s="89.59" t="-1.60" orientation="+" dynamic="yes" zOffset="5" country="OpenDRIVE" type="1000011" subtype="30" height="0.78" width="0.26">
                <validity fromLane="2" toLane="2"/>
            </signal>
            <signal id="J1_7" s="89.59" t="-1.60" orientation="+" dynamic="yes" zOffset="5" country="OpenDRIVE" type="1000011" subtype="10" height="0.78" width="0.26">
                <validity fromLane="2" toLane="2"/>
            </signal>
        </signals> -->
    </road>
    <road name="" length="89.60000000" id="54" junction="-1">
        <link>
            <predecessor elementType="junction" elementId="5"/>
            <successor elementType="junction" elementId="1"/>
        </link>
        <type s="0" type="town"/>
        <planView>
            <geometry s="0.00000000" x="-100.00000000" y="0.00000000" hdg="0.00000000" length="89.60000000">
                <line/>
            </geometry>
        </planView>
        <elevationProfile>
            <elevation s="0" a="0.00" b="0" c="0" d="0"/>
        </elevationProfile>
        <lateralProfile/>
        <lanes>
            <laneSection s="0">
                <center>
                    <lane id="0" type="none" level="true">
                        <link/>
                        <roadMark sOffset="0" type="solid" weight="standard" color="standard" width="0.13"/>
                    </lane>
                </center>
                <right>
                    <lane id="-1" type="driving" level="true">
                        <link/>
                        <width sOffset="0" a="3.20" b="0" c="0" d="0"/>
                        <roadMark sOffset="0" type="broken" weight="standard" color="standard" width="0.13"/>
                        <speed sOffset="0" max="13.89"/>
                    </lane>
                    <lane id="-2" type="driving" level="true">
                        <link/>
                        <width sOffset="0" a="3.20" b="0" c="0" d="0"/>
                        <roadMark sOffset="0" type="solid" weight="standard" color="standard" width="0.13"/>
                        <speed sOffset="0" max="13.89"/>
                    </lane>
                    <!-- <lane id="-3" type="sidewalk" level="true">
                        <link/>
                        <width sOffset="0" a="2.00" b="0" c="0" d="0"/>
                        <roadMark sOffset="0" type="solid" weight="standard" color="standard" width="0.13"/>
                        <speed sOffset="0" max="13.89"/>
                    </lane> -->
                 </right>
            </laneSection>
        </lanes>
        <objects/>
        <!-- <signals>
            <signal id="J1_12" s="89.60" t="-4.80" orientation="+" dynamic="yes" zOffset="5" country="OpenDRIVE" type="1000011" subtype="20" height="0.78" width="0.26">
                <validity fromLane="1" toLane="1"/>
            </signal>
            <signal id="J1_13" s="89.60" t="-4.80" orientation="+" dynamic="yes" zOffset="5" country="OpenDRIVE" type="1000011" subtype="30" height="0.78" width="0.26">
                <validity fromLane="1" toLane="1"/>
            </signal>
            <signal id="J1_14" s="89.60" t="-1.60" orientation="+" dynamic="yes" zOffset="5" country="OpenDRIVE" type="1000011" subtype="30" height="0.78" width="0.26">
                <validity fromLane="2" toLane="2"/>
            </signal>
            <signal id="J1_15" s="89.60" t="-1.60" orientation="+" dynamic="yes" zOffset="5" country="OpenDRIVE" type="1000011" subtype="10" height="0.78" width="0.26">
                <validity fromLane="2" toLane="2"/>
            </signal>
        </signals> -->
    </road>
    <road name="" length="89.59155430" id="55" junction="-1">
        <link>
            <predecessor elementType="junction" elementId="1"/>
        </link>
        <type s="0" type="town"/>
        <planView>
            <geometry s="0.00000000" x="0.01039799" y="10.40839061" hdg="1.56979733" length="89.59155430">
                <line/>
            </geometry>
        </planView>
        <elevationProfile>
            <elevation s="0" a="0.00" b="0" c="0" d="0"/>
        </elevationProfile>
        <lateralProfile/>
        <lanes>
            <laneSection s="0">
                <center>
                    <lane id="0" type="none" level="true">
                        <link/>
                        <roadMark sOffset="0" type="solid" weight="standard" color="standard" width="0.13"/>
                    </lane>
                </center>
                <right>
                    <lane id="-1" type="driving" level="true">
                        <link/>
                        <width sOffset="0" a="3.20" b="0" c="0" d="0"/>
                        <roadMark sOffset="0" type="broken" weight="standard" color="standard" width="0.13"/>
                        <speed sOffset="0" max="13.89"/>
                    </lane>
                    <lane id="-2" type="driving" level="true">
                        <link/>
                        <width sOffset="0" a="3.20" b="0" c="0" d="0"/>
                        <roadMark sOffset="0" type="solid" weight="standard" color="standard" width="0.13"/>
                        <speed sOffset="0" max="13.89"/>
                    </lane>
                    <!-- <lane id="-3" type="sidewalk" level="true">
                        <link/>
                        <width sOffset="0" a="2.00" b="0" c="0" d="0"/>
                        <roadMark sOffset="0" type="solid" weight="standard" color="standard" width="0.13"/>
                        <speed sOffset="0" max="13.89"/>
                    </lane> -->
                 </right>
            </laneSection>
        </lanes>
        <objects>
            <object id=":J1_c0" type="crosswalk" s="0.00000000" t="0.00000000" hdg="0.00000000" length="4.00000000" width="12.80000000">
                <outline id="0" fillType="concrete" outer="true" closed="false" laneType="border">
                    <cornerLocal u="2.00000000" v="-6.40000000" z="0.00000000" height="0.00000000" id="0"/>
                    <cornerLocal u="2.00000000" v="6.40000000" z="0.00000000" height="0.00000000" id="1"/>
                    <cornerLocal u="-2.00000000" v="6.40000000" z="0.00000000" height="0.00000000" id="2"/>
                    <cornerLocal u="-2.00000000" v="-6.40000000" z="0.00000000" height="0.00000000" id="3"/>
                </outline>
            </object>
        </objects>
        <signals/>
    </road>
    <road name="" length="89.60000000" id="56" junction="-1">
        <link>
            <predecessor elementType="junction" elementId="1"/>
        </link>
        <type s="0" type="town"/>
        <planView>
            <geometry s="0.00000000" x="0.00000000" y="-10.40000000" hdg="-1.57079633" length="89.60000000">
                <line/>
            </geometry>
        </planView>
        <elevationProfile>
            <elevation s="0" a="0.00" b="0" c="0" d="0"/>
        </elevationProfile>
        <lateralProfile/>
        <lanes>
            <laneSection s="0">
                <center>
                    <lane id="0" type="none" level="true">
                        <link/>
                        <roadMark sOffset="0" type="solid" weight="standard" color="standard" width="0.13"/>
                    </lane>
                </center>
                <right>
                    <lane id="-1" type="driving" level="true">
                        <link/>
                        <width sOffset="0" a="3.20" b="0" c="0" d="0"/>
                        <roadMark sOffset="0" type="broken" weight="standard" color="standard" width="0.13"/>
                        <speed sOffset="0" max="13.89"/>
                    </lane>
                    <lane id="-2" type="driving" level="true">
                        <link/>
                        <width sOffset="0" a="3.20" b="0" c="0" d="0"/>
                        <roadMark sOffset="0" type="solid" weight="standard" color="standard" width="0.13"/>
                        <speed sOffset="0" max="13.89"/>
                    </lane>
                    <!-- <lane id="-3" type="sidewalk" level="true">
                        <link/>
                        <width sOffset="0" a="2.00" b="0" c="0" d="0"/>
                        <roadMark sOffset="0" type="solid" weight="standard" color="standard" width="0.13"/>
                        <speed sOffset="0" max="13.89"/>
                    </lane> -->
                 </right>
            </laneSection>
        </lanes>
        <objects>
            <object id=":J1_c2" type="crosswalk" s="0.00000000" t="0.00000000" hdg="0.00000000" length="4.00000000" width="12.80000000">
                <outline id="0" fillType="concrete" outer="true" closed="false" laneType="border">
                    <cornerLocal u="2.00000000" v="-6.40000000" z="0.00000000" height="0.00000000" id="0"/>
                    <cornerLocal u="2.00000000" v="6.40000000" z="0.00000000" height="0.00000000" id="1"/>
                    <cornerLocal u="-2.00000000" v="6.40000000" z="0.00000000" height="0.00000000" id="2"/>
                    <cornerLocal u="-2.00000000" v="-6.40000000" z="0.00000000" height="0.00000000" id="3"/>
                </outline>
            </object> 
        </objects>
        <signals/>
    </road>
    <road name="" length="89.59160420" id="57" junction="-1">
        <link>
            <predecessor elementType="junction" elementId="1"/>
        </link>
        <type s="0" type="town"/>
        <planView>
            <geometry s="0.00000000" x="10.40839580" y="0.00000000" hdg="0.00000000" length="89.59160420">
                <line/>
            </geometry>
        </planView>
        <elevationProfile>
            <elevation s="0" a="0.00" b="0" c="0" d="0"/>
        </elevationProfile>
        <lateralProfile/>
        <lanes>
            <laneSection s="0">
                <center>
                    <lane id="0" type="none" level="true">
                        <link/>
                        <roadMark sOffset="0" type="solid" weight="standard" color="standard" width="0.13"/>
                    </lane>
                </center>
                <right>
                    <lane id="-1" type="driving" level="true">
                        <link/>
                        <width sOffset="0" a="3.20" b="0" c="0" d="0"/>
                        <roadMark sOffset="0" type="broken" weight="standard" color="standard" width="0.13"/>
                        <speed sOffset="0" max="13.89"/>
                    </lane>
                    <lane id="-2" type="driving" level="true">
                        <link/>
                        <width sOffset="0" a="3.20" b="0" c="0" d="0"/>
                        <roadMark sOffset="0" type="solid" weight="standard" color="standard" width="0.13"/>
                        <speed sOffset="0" max="13.89"/>
                    </lane>
                    <!-- <lane id="-3" type="sidewalk" level="true">
                        <link/>
                        <width sOffset="0" a="2.00" b="0" c="0" d="0"/>
                        <roadMark sOffset="0" type="solid" weight="standard" color="standard" width="0.13"/>
                        <speed sOffset="0" max="13.89"/>
                    </lane> -->
                 </right>
            </laneSection>
        </lanes>
        <objects>
            <object id=":J1_c1" type="crosswalk" s="0.00000000" t="0.00000000" hdg="0.00000000" length="4.00000000" width="12.80000000">
                <outline id="0" fillType="concrete" outer="true" closed="false" laneType="border">
                    <cornerLocal u="2.00000000" v="-6.40000000" z="0.00000000" height="0.00000000" id="0"/>
                    <cornerLocal u="2.00000000" v="6.40000000" z="0.00000000" height="0.00000000" id="1"/>
                    <cornerLocal u="-2.00000000" v="6.40000000" z="0.00000000" height="0.00000000" id="2"/>
                    <cornerLocal u="-2.00000000" v="-6.40000000" z="0.00000000" height="0.00000000" id="3"/>
                </outline>
            </object>
        </objects>
        <signals/>
    </road>

    <road name=":J1_0" length="11.69242874" id="58" junction="1">
        <link>
            <predecessor elementType="road" elementId="51" contactPoint="end"/>
            <successor elementType="road" elementId="50" contactPoint="start"/>
        </link>
        <type s="0" type="town"/>
        <planView>
            <geometry s="0.00000000" x="-3.18960041" y="10.41158741" hdg="-1.57179533" length="11.69242874">
                <paramPoly3 aU="-0.00000000" bU="14.42318201" cU="-7.20439501" dU="0.00000000" aV="0.00000000" bV="0.00000000" cV="-7.20319161" dV="0.00000000" pRange="normalized"/>
            </geometry>
        </planView>
        <elevationProfile>
            <elevation s="0" a="0.00" b="0" c="0" d="0"/>
        </elevationProfile>
        <lateralProfile/>
        <lanes>
            <laneSection s="0">
                <center>
                    <lane id="0" type="none" level="true">
                        <link/>
                        <roadMark sOffset="0" type="none" weight="standard" color="standard" width="0.00"/>
                    </lane>
                </center>
                <right>
                    <lane id="-1" type="driving" level="true">
                        <link>
                            <predecessor id="-2"/>
                            <successor id="-2"/>
                        </link>
                        <width sOffset="0" a="3.20" b="0.00" c="0.00" d="0.00"/>
                        <roadMark sOffset="0" type="solid" weight="standard" color="standard" width="0.13"/>
                        <speed sOffset="0" max="6.52"/>
                    </lane>
                    <lane id="-2" type="sidewalk" level="false">
                        <link>
                            <predecessor id="-3"/>
                            <successor id="-3"/>
                        </link>
                        <width sOffset="0" a="2.00" b="0.00" c="0.00" d="0.00"/>
                        <roadMark sOffset="0" type="solid" weight="standard" color="standard" width="0.13"/>
                        <speed sOffset="0" max="13.89"/>
                    </lane>
                 </right>
            </laneSection>
        </lanes>
        <objects/>
        <signals/>
    </road>
    <road name=":J1_1" length="20.80839487" id="59" junction="1">
        <link>
            <predecessor elementType="road" elementId="51" contactPoint="end"/>
            <successor elementType="road" elementId="56" contactPoint="start"/>
        </link>
        <type s="0" type="town"/>
        <planView>
            <geometry s="0.00000000" x="0.01039799" y="10.40839061" hdg="-1.57179533" length="20.80839487">
                <paramPoly3 aU="-0.00000000" bU="31.21258981" cU="-31.21258201" dU="20.80838282" aV="0.00000000" bV="0.00000000" cV="-0.00001258" dV="0.01040218" pRange="normalized"/>
            </geometry>
        </planView>
        <elevationProfile>
            <elevation s="0" a="0.00" b="0" c="0" d="0"/>
        </elevationProfile>
        <lateralProfile/>
        <lanes>
            <laneSection s="0">
                <center>
                    <lane id="0" type="none" level="true">
                        <link/>
                        <roadMark sOffset="0" type="none" weight="standard" color="standard" width="0.00"/>
                    </lane>
                </center>
                <right>
                    <lane id="-1" type="driving" level="true">
                        <link>
                            <predecessor id="-1"/>
                            <successor id="-1"/>
                        </link>
                        <width sOffset="0" a="3.20" b="0.00" c="0.00" d="0.00"/>
                        <roadMark sOffset="0" type="broken" weight="standard" color="standard" width="0.13"/>
                        <speed sOffset="0" max="13.89"/>
                    </lane>
                    <lane id="-2" type="driving" level="true">
                        <link>
                            <predecessor id="-2"/>
                            <successor id="-2"/>
                        </link>
                        <width sOffset="0" a="3.20" b="0.00" c="0.00" d="0.00"/>
                        <roadMark sOffset="0" type="broken" weight="standard" color="standard" width="0.13"/>
                        <speed sOffset="0" max="13.89"/>
                    </lane>
                 </right>
            </laneSection>
        </lanes>
        <objects/>
        <signals/>
    </road>
    <road name=":J1_3" length="16.87628718" id="60" junction="1">
        <link>
            <predecessor elementType="road" elementId="51" contactPoint="end"/>
            <successor elementType="road" elementId="57" contactPoint="start"/>
        </link>
        <type s="0" type="town"/>
        <planView>